
     RDKit          3D

159166  0  0  0  0  0  0  0  0999 V2000
    0.0382    0.3090    1.6882 S   0  0  0  0  0  2  0  0  0  0  0  0
    0.4219    2.2775    1.1436 Si  0  0  0  0  0  4  0  0  0  0  0  0
    1.4504   -0.6968    2.8474 Si  0  0  0  0  0  4  0  0  0  0  0  0
    1.2250   -0.3856    5.0294 Si  0  0  0  0  0  4  0  0  0  0  0  0
    0.2968    1.5691    5.5280 Si  0  0  0  0  0  4  0  0  0  0  0  0
    2.2994    5.0934    2.6054 Si  0  0  0  0  0  4  0  0  0  0  0  0
    2.4121    3.0652    1.6230 Si  0  0  0  0  0  4  0  0  0  0  0  0
    1.7651    3.2138    5.6320 Si  0  0  0  0  0  4  0  0  0  0  0  0
    1.0064    4.9224    4.3993 Si  0  0  0  0  0  4  0  0  0  0  0  0
    3.0586   -0.4135    2.3611 F   0  0  0  0  0  0  0  0  0  0  0  0
    1.2294   -2.3735    2.5708 F   0  0  0  0  0  0  0  0  0  0  0  0
    2.7176   -0.5673    5.8280 F   0  0  0  0  0  0  0  0  0  0  0  0
    0.2027   -1.5885    5.6708 F   0  0  0  0  0  0  0  0  0  0  0  0
   -0.4000    1.4018    7.0783 F   0  0  0  0  0  0  0  0  0  0  0  0
   -0.9639    1.8720    4.4654 F   0  0  0  0  0  0  0  0  0  0  0  0
    3.3012    2.7282    5.1261 F   0  0  0  0  0  0  0  0  0  0  0  0
    1.9534    3.7949    7.2260 F   0  0  0  0  0  0  0  0  0  0  0  0
    1.0870    6.3779    5.2602 F   0  0  0  0  0  0  0  0  0  0  0  0
   -0.6081    4.6959    3.9703 F   0  0  0  0  0  0  0  0  0  0  0  0
    3.8631    5.4568    3.1287 F   0  0  0  0  0  0  0  0  0  0  0  0
    1.7466    6.2480    1.5252 F   0  0  0  0  0  0  0  0  0  0  0  0
    3.3033    2.1075    2.6529 F   0  0  0  0  0  0  0  0  0  0  0  0
    3.3420    3.2912    0.2101 F   0  0  0  0  0  0  0  0  0  0  0  0
   -0.7826    3.2814    1.8234 F   0  0  0  0  0  0  0  0  0  0  0  0
    0.1873    2.4173   -0.5459 F   0  0  0  0  0  0  0  0  0  0  0  0
   -0.1557   -0.2993   -0.2072 Rh  0  0  0  0  0  3  0  0  0  0  0  0
   -0.3957   -1.0524   -2.5537 Rh  0  0  0  0  0  3  0  0  0  0  0  0
    8.7549   -0.0707   -0.3452 Cl  0  0  0  0  0  0  0  0  0  0  0  0
    7.7225   -1.3696   -0.8362 C   0  0  0  0  0  0  0  0  0  0  0  0
    6.4289   -1.1027   -1.3001 C   0  0  0  0  0  0  0  0  0  0  0  0
    8.1524   -2.7084   -0.7608 C   0  0  0  0  0  0  0  0  0  0  0  0
    5.6776    0.1747   -1.4763 C   0  0  0  0  0  0  0  0  0  0  0  0
    5.5937   -2.1160   -1.6788 C   0  0  0  0  0  0  0  0  0  0  0  0
    7.2833   -3.7511   -1.1414 C   0  0  0  0  0  0  0  0  0  0  0  0
    9.7414   -3.0726   -0.1765 Cl  0  0  0  0  0  0  0  0  0  0  0  0
    4.4720   -0.1519   -2.0122 N   0  0  0  0  0  0  0  0  0  0  0  0
    6.0104    1.3085   -1.1661 O   0  0  0  0  0  0  0  0  0  0  0  0
    5.9889   -3.4535   -1.6025 C   0  0  0  0  0  0  0  0  0  0  0  0
    4.3128   -1.4968   -2.1151 C   0  0  0  0  0  0  0  0  0  0  0  0
    7.7864   -5.4041   -1.0257 Cl  0  0  0  0  0  0  0  0  0  0  0  0
    3.4757    0.8992   -2.4472 C   0  0  2  0  0  0  0  0  0  0  0  0
    4.8681   -4.7015   -2.0443 Cl  0  0  0  0  0  0  0  0  0  0  0  0
    3.2523   -2.0440   -2.4448 O   0  0  0  0  0  0  0  0  0  0  0  0
    2.0154    0.5090   -2.0307 C   0  0  0  0  0  0  0  0  0  0  0  0
    3.6827    1.4237   -3.9350 C   0  0  0  0  0  0  0  0  0  0  0  0
    3.6570    1.7702   -1.8107 H   0  0  0  0  0  0  0  0  0  0  0  0
    1.6537    0.6182   -0.8115 O   0  0  0  0  0  0  0  0  0  0  0  0
    1.3701   -0.0417   -2.9598 O   0  0  0  0  0  0  0  0  0  0  0  0
    5.0655    2.1079   -4.0697 C   0  0  0  0  0  0  0  0  0  0  0  0
    3.6417    0.2959   -4.9991 C   0  0  0  0  0  0  0  0  0  0  0  0
    2.6409    2.5046   -4.3226 C   0  0  0  0  0  0  0  0  0  0  0  0
    5.8980    1.4087   -3.9854 H   0  0  0  0  0  0  0  0  0  0  0  0
    5.2178    2.8840   -3.3165 H   0  0  0  0  0  0  0  0  0  0  0  0
    5.1919    2.5939   -5.0401 H   0  0  0  0  0  0  0  0  0  0  0  0
    4.4121   -0.4582   -4.8317 H   0  0  0  0  0  0  0  0  0  0  0  0
    3.8435    0.6988   -5.9953 H   0  0  0  0  0  0  0  0  0  0  0  0
    2.6854   -0.2140   -5.0739 H   0  0  0  0  0  0  0  0  0  0  0  0
    2.6607    3.3458   -3.6274 H   0  0  0  0  0  0  0  0  0  0  0  0
    1.6197    2.1364   -4.3848 H   0  0  0  0  0  0  0  0  0  0  0  0
    2.8615    2.9291   -5.3058 H   0  0  0  0  0  0  0  0  0  0  0  0
   -0.3738   -3.3602    1.8338 O   0  0  0  0  0  0  0  0  0  0  0  0
    0.6268   -4.0318    2.1426 C   0  0  0  0  0  0  0  0  0  0  0  0
    1.5313   -4.5124    1.2448 N   0  0  0  0  0  0  0  0  0  0  0  0
    1.1662   -4.3671    3.4930 C   0  0  0  0  0  0  0  0  0  0  0  0
    2.6435   -5.0058    1.8472 C   0  0  0  0  0  0  0  0  0  0  0  0
    1.3978   -4.5040   -0.2604 C   0  0  2  0  0  0  0  0  0  0  0  0
    0.6445   -4.1671    4.7738 C   0  0  0  0  0  0  0  0  0  0  0  0
    2.3964   -4.9390    3.3143 C   0  0  0  0  0  0  0  0  0  0  0  0
    3.6511   -5.3659    1.2540 O   0  0  0  0  0  0  0  0  0  0  0  0
    1.0330   -3.0796   -0.7739 C   0  0  0  0  0  0  0  0  0  0  0  0
    0.5682   -5.7132   -0.8567 C   0  0  0  0  0  0  0  0  0  0  0  0
    2.4083   -4.6282   -0.6562 H   0  0  0  0  0  0  0  0  0  0  0  0
    1.4154   -4.5408    5.8885 C   0  0  0  0  0  0  0  0  0  0  0  0
   -0.9143   -3.4375    4.9640 Cl  0  0  0  0  0  0  0  0  0  0  0  0
    3.1850   -5.3219    4.4051 C   0  0  0  0  0  0  0  0  0  0  0  0
    1.0567   -2.0542   -0.0819 O   0  0  0  0  0  0  0  0  0  0  0  0
    0.5617   -2.8749   -2.0155 O   0  0  0  0  0  0  0  0  0  0  0  0
    0.9772   -7.0433   -0.1740 C   0  0  0  0  0  0  0  0  0  0  0  0
    0.8601   -5.9037   -2.3677 C   0  0  0  0  0  0  0  0  0  0  0  0
   -0.9585   -5.5509   -0.6627 C   0  0  0  0  0  0  0  0  0  0  0  0
    2.6874   -5.1170    5.7047 C   0  0  0  0  0  0  0  0  0  0  0  0
    0.8054   -4.2484    7.4829 Cl  0  0  0  0  0  0  0  0  0  0  0  0
    4.7581   -5.9959    4.1477 Cl  0  0  0  0  0  0  0  0  0  0  0  0
    2.0521   -7.2250   -0.2451 H   0  0  0  0  0  0  0  0  0  0  0  0
    0.4906   -7.9075   -0.6325 H   0  0  0  0  0  0  0  0  0  0  0  0
    0.7102   -7.0807    0.8828 H   0  0  0  0  0  0  0  0  0  0  0  0
    1.9330   -5.9552   -2.5676 H   0  0  0  0  0  0  0  0  0  0  0  0
    0.4361   -5.1362   -3.0090 H   0  0  0  0  0  0  0  0  0  0  0  0
    0.4454   -6.8466   -2.7345 H   0  0  0  0  0  0  0  0  0  0  0  0
   -1.3666   -4.6943   -1.1887 H   0  0  0  0  0  0  0  0  0  0  0  0
   -1.2380   -5.4794    0.3893 H   0  0  0  0  0  0  0  0  0  0  0  0
   -1.4896   -6.4255   -1.0488 H   0  0  0  0  0  0  0  0  0  0  0  0
    3.6539   -5.5448    7.0765 Cl  0  0  0  0  0  0  0  0  0  0  0  0
   -2.1262   -2.0300   -1.9930 O   0  0  0  0  0  0  0  0  0  0  0  0
   -2.5164   -1.9432   -0.7978 C   0  0  0  0  0  0  0  0  0  0  0  0
   -1.9425   -1.3109    0.1479 O   0  0  0  0  0  0  0  0  0  0  0  0
   -3.9305   -2.4779   -0.3558 C   0  0  1  0  0  0  0  0  0  0  0  0
   -4.6784   -1.4860    0.5086 N   0  0  0  0  0  0  0  0  0  0  0  0
   -4.8239   -3.1155   -1.5080 C   0  0  0  0  0  0  0  0  0  0  0  0
   -3.6670   -3.3129    0.2991 H   0  0  0  0  0  0  0  0  0  0  0  0
   -5.3517   -1.8608    1.6265 C   0  0  0  0  0  0  0  0  0  0  0  0
   -4.7803   -0.1534    0.2744 C   0  0  0  0  0  0  0  0  0  0  0  0
   -5.1993   -2.0973   -2.6165 C   0  0  0  0  0  0  0  0  0  0  0  0
   -4.1291   -4.3390   -2.1619 C   0  0  0  0  0  0  0  0  0  0  0  0
   -6.1600   -3.6594   -0.9397 C   0  0  0  0  0  0  0  0  0  0  0  0
   -5.3110   -2.9816    2.1137 O   0  0  0  0  0  0  0  0  0  0  0  0
   -6.0620   -0.6461    2.1212 C   0  0  0  0  0  0  0  0  0  0  0  0
   -4.1317    0.4421   -0.5946 O   0  0  0  0  0  0  0  0  0  0  0  0
   -5.7102    0.3894    1.3004 C   0  0  0  0  0  0  0  0  0  0  0  0
   -5.8461   -2.5633   -3.3649 H   0  0  0  0  0  0  0  0  0  0  0  0
   -4.3492   -1.7003   -3.1643 H   0  0  0  0  0  0  0  0  0  0  0  0
   -5.7688   -1.2531   -2.2251 H   0  0  0  0  0  0  0  0  0  0  0  0
   -3.8413   -5.0830   -1.4164 H   0  0  0  0  0  0  0  0  0  0  0  0
   -3.2542   -4.0976   -2.7591 H   0  0  0  0  0  0  0  0  0  0  0  0
   -4.8072   -4.8557   -2.8466 H   0  0  0  0  0  0  0  0  0  0  0  0
   -6.0032   -4.3633   -0.1197 H   0  0  0  0  0  0  0  0  0  0  0  0
   -6.7400   -4.1961   -1.6944 H   0  0  0  0  0  0  0  0  0  0  0  0
   -6.8208   -2.8730   -0.5735 H   0  0  0  0  0  0  0  0  0  0  0  0
   -6.9202   -0.4456    3.2080 C   0  0  0  0  0  0  0  0  0  0  0  0
   -6.1849    1.6841    1.5172 C   0  0  0  0  0  0  0  0  0  0  0  0
   -7.4207    0.8485    3.4454 C   0  0  0  0  0  0  0  0  0  0  0  0
   -7.3204   -1.7643    4.2545 Cl  0  0  0  0  0  0  0  0  0  0  0  0
   -7.0507    1.9143    2.6004 C   0  0  0  0  0  0  0  0  0  0  0  0
   -5.6549    2.9718    0.4856 Cl  0  0  0  0  0  0  0  0  0  0  0  0
   -8.4591    1.1359    4.8011 Cl  0  0  0  0  0  0  0  0  0  0  0  0
   -7.6193    3.5202    2.9107 Cl  0  0  0  0  0  0  0  0  0  0  0  0
   -1.2793    1.4044   -0.7588 O   0  0  0  0  0  0  0  0  0  0  0  0
   -1.7215    1.4797   -1.9534 C   0  0  0  0  0  0  0  0  0  0  0  0
   -1.4746    0.6786   -2.8948 O   0  0  0  0  0  0  0  0  0  0  0  0
   -2.4140    2.8682   -2.2174 C   0  0  1  0  0  0  0  0  0  0  0  0
   -1.6079    4.0231   -1.6585 N   0  0  0  0  0  0  0  0  0  0  0  0
   -2.9490    3.0992   -3.6955 C   0  0  0  0  0  0  0  0  0  0  0  0
   -3.3085    2.7994   -1.5919 H   0  0  0  0  0  0  0  0  0  0  0  0
   -0.2537    4.1336   -1.6816 C   0  0  0  0  0  0  0  0  0  0  0  0
   -2.1920    5.0734   -1.0228 C   0  0  0  0  0  0  0  0  0  0  0  0
   -1.8060    3.1823   -4.7400 C   0  0  0  0  0  0  0  0  0  0  0  0
   -3.9496    1.9885   -4.1170 C   0  0  0  0  0  0  0  0  0  0  0  0
   -3.7403    4.4270   -3.8009 C   0  0  0  0  0  0  0  0  0  0  0  0
    0.5110    3.2336   -2.0610 O   0  0  0  0  0  0  0  0  0  0  0  0
    0.0794    5.4399   -1.0513 C   0  0  0  0  0  0  0  0  0  0  0  0
   -3.3857    5.1615   -0.7772 O   0  0  0  0  0  0  0  0  0  0  0  0
   -1.0956    6.0160   -0.6575 C   0  0  0  0  0  0  0  0  0  0  0  0
   -1.1113    3.9950   -4.5221 H   0  0  0  0  0  0  0  0  0  0  0  0
   -2.2065    3.3954   -5.7347 H   0  0  0  0  0  0  0  0  0  0  0  0
   -1.2269    2.2685   -4.8406 H   0  0  0  0  0  0  0  0  0  0  0  0
   -4.7409    1.8592   -3.3754 H   0  0  0  0  0  0  0  0  0  0  0  0
   -3.4949    1.0187   -4.2994 H   0  0  0  0  0  0  0  0  0  0  0  0
   -4.4548    2.2471   -5.0516 H   0  0  0  0  0  0  0  0  0  0  0  0
   -3.1157    5.3094   -3.6590 H   0  0  0  0  0  0  0  0  0  0  0  0
   -4.5527    4.4808   -3.0731 H   0  0  0  0  0  0  0  0  0  0  0  0
   -4.2023    4.5546   -4.7828 H   0  0  0  0  0  0  0  0  0  0  0  0
    1.3105    6.0427   -0.7846 C   0  0  0  0  0  0  0  0  0  0  0  0
   -1.1093    7.2518   -0.0002 C   0  0  0  0  0  0  0  0  0  0  0  0
    1.3272    7.2859   -0.1285 C   0  0  0  0  0  0  0  0  0  0  0  0
    2.7759    5.2181   -1.2115 Cl  0  0  0  0  0  0  0  0  0  0  0  0
    0.1163    7.8937    0.2597 C   0  0  0  0  0  0  0  0  0  0  0  0
   -2.6079    7.9495    0.5122 Cl  0  0  0  0  0  0  0  0  0  0  0  0
    2.8448    8.0405    0.2279 Cl  0  0  0  0  0  0  0  0  0  0  0  0
    0.1355    9.4130    1.0914 Cl  0  0  0  0  0  0  0  0  0  0  0  0
  1  2  1  0
  1  3  1  0
  2  7  1  0
  2 24  1  0
  2 25  1  0
  3  4  1  0
  3 10  1  0
  3 11  1  0
  4  5  1  0
  4 12  1  0
  4 13  1  0
  5  8  1  0
  5 14  1  0
  5 15  1  0
  6  7  1  0
  6  9  1  0
  6 20  1  0
  6 21  1  0
  7 22  1  0
  7 23  1  0
  8  9  1  0
  8 16  1  0
  8 17  1  0
  9 18  1  0
  9 19  1  0
 26 96  1  0
 26 27  1  0
 26127  1  0
 27 77  1  0
 27 48  1  0
 28 29  1  0
 29 31  2  0
 29 30  1  0
 30 32  1  0
 30 33  2  0
 31 35  1  0
 31 34  1  0
 32 36  1  0
 32 37  2  0
 33 38  1  0
 33 39  1  0
 34 40  1  0
 34 38  2  0
 36 39  1  0
 36 41  1  0
 38 42  1  0
 39 43  2  0
 41 46  1  1
 41 44  1  0
 41 45  1  0
 44 47  2  0
 44 48  1  0
 45 49  1  0
 45 50  1  0
 45 51  1  0
 49 53  1  0
 49 52  1  0
 49 54  1  0
 50 57  1  0
 50 55  1  0
 50 56  1  0
 51 58  1  0
 51 59  1  0
 51 60  1  0
 61 62  2  0
 62 64  1  0
 62 63  1  0
 63 65  1  0
 63 66  1  0
 64 67  2  0
 64 68  1  0
 65 68  1  0
 65 69  2  0
 66 72  1  6
 66 70  1  0
 66 71  1  0
 67 74  1  0
 67 73  1  0
 68 75  2  0
 70 76  2  0
 70 77  1  0
 71 80  1  0
 71 78  1  0
 71 79  1  0
 73 82  1  0
 73 81  2  0
 75 81  1  0
 75 83  1  0
 78 86  1  0
 78 84  1  0
 78 85  1  0
 79 88  1  0
 79 87  1  0
 79 89  1  0
 80 91  1  0
 80 90  1  0
 80 92  1  0
 81 93  1  0
 94 95  2  0
 95 97  1  0
 95 96  1  0
 97 98  1  0
 97100  1  1
 97 99  1  0
 98101  1  0
 98102  1  0
 99105  1  0
 99103  1  0
 99104  1  0
101107  1  0
101106  2  0
102109  1  0
102108  2  0
103112  1  0
103110  1  0
103111  1  0
104113  1  0
104114  1  0
104115  1  0
105118  1  0
105116  1  0
105117  1  0
107119  1  0
107109  2  0
109120  1  0
119122  1  0
119121  2  0
120123  2  0
120124  1  0
121125  1  0
121123  1  0
123126  1  0
127128  1  0
128130  1  0
128129  2  0
130133  1  1
130131  1  0
130132  1  0
131135  1  0
131134  1  0
132136  1  0
132137  1  0
132138  1  0
134139  2  0
134140  1  0
135142  1  0
135141  2  0
136143  1  0
136144  1  0
136145  1  0
137146  1  0
137147  1  0
137148  1  0
138149  1  0
138150  1  0
138151  1  0
140152  1  0
140142  2  0
142153  1  0
152155  1  0
152154  2  0
153156  2  0
153157  1  0
154158  1  0
154156  1  0
156159  1  0
M  CHG  1   1   1
M  RAD  3   1   2  26   2  27   2
M  END
$$$$
